54

Co         0.74896        6.52194        3.63263
Co         0.74896       16.00011        9.10485
Co         3.00486       13.99095        9.30408
Co         5.26076        8.53110        3.83185
Co         5.26076       14.82300        7.46448
Co         3.00486        7.35399        5.47222
H          2.78830        3.58961        6.21738
H          5.04419       11.05862        6.71932
H          4.85921        4.28759        7.42631
H          0.53239        7.75881        0.00000
H          2.60330        6.36285        0.00000
H          0.34741       11.75660        5.51039
C          5.66321       14.16573       10.53824
C          1.15141       13.66680        6.99876
C          4.24109       17.93832        7.60549
C          3.40731       16.98154        8.33641
C          1.98519       12.55541        6.53562
C         -0.52337        7.43839        0.00000
C          6.49700       14.32033       11.73229
C          6.49700        5.08640        6.40108
C          1.40994       11.63560        5.71996
C          5.61493       17.66496        7.28207
C          3.40731        6.69671        2.39846
C          3.66583        6.60485        0.00000
C          1.10314        4.94299        6.00263
C          5.66321        6.19779        5.93795
C          5.61493        7.26809        1.27944
C          3.35903       10.19595        5.65463
C          1.15141        9.51253        4.60029
C          3.98843       11.21883        6.44183
C          1.10314       14.73711       11.65726
C          1.73254        3.74982        6.49487
C          3.35903       12.41200        6.93407
C          4.24109        6.85132        1.20441
C          5.92174        4.16659        7.21674
C          1.98519       10.46931        5.33121
O          3.86142       15.79845        8.52011
O          1.70546        5.74516        5.22384
O          6.11733        6.94842        5.00521
O          6.21726       16.58942        7.58738
O          6.21726        7.54146        2.36354
O          1.60552        8.32944        4.41659
O         -0.00451       13.77435        6.48129
O          1.60552       14.41743        7.93149
O          4.50729        6.30534        6.45541
O          3.96136        9.12041        5.34933
O          6.11733       14.59818        9.42180
O          4.50729       13.66381       10.70383
O          3.96136       13.21417        7.71286
O          2.25139        6.19480        2.23287
O         -0.00451        9.90690        4.24841
O          2.25139       17.37591        8.68829
O          1.70546       15.01047       10.57317
O          3.86142        7.12917        3.51490
