24

H          2.78670        6.51780       16.87490
H!          2.75880        6.89460       14.50560
C          3.60530        6.94040       16.43030
C!          3.59090        7.16110       15.03980
H          2.90330        8.32700        8.21990
C!          4.72850        7.29930       17.21280
C!          3.68050        7.73400       10.08340
C          3.72910        7.95200        8.69320
C          4.69960        7.75360       14.39280
C          4.66750        7.99960       13.02420
C          4.74030        6.96770       12.13760
C          4.79940        7.20860       10.77000
C          5.83550        7.89320       16.56140
H          5.03650        8.87710       12.73150
C!          5.81880        8.12630       15.17310
H          5.15840        6.12230       12.45980
C!          4.89680        7.65710        7.95020
H          6.66460        8.15680       17.09950
C!          5.96290        6.89740       10.02860
H!          6.63640        8.55990       14.73490
C          6.01310        7.12820        8.64070
H          6.87400        6.91250        8.13200
H!          6.78338        6.49710       10.50984
H!          2.81992        7.95987       10.60629
