7

 N                 -2.40291520   -2.23405082    0.00000000
 H                 -1.40335520   -2.26371682    0.00000000
 C                 -3.08986920   -0.95823882    0.00000000
 C                 -2.08534620    0.18518518    0.00000000
 H                 -3.71470220   -0.88143582   -0.88982300
 H                 -3.71470220   -0.88143582    0.88982300
 O                 -0.85134020   -0.06139382    0.00000000
