11

O          4.35460        6.52140        2.43810
O          4.87130        5.12250        4.10580
O          5.52710        6.09490        0.00630
C          4.96190        5.50040        2.88680
C          5.71720        4.57670        1.93660
C          5.95070        4.91480        0.58450
C          6.82419        4.17625       -0.31033
C          7.00598        4.28801       -1.57179
H          6.35824        3.62274       -2.10354
H          8.02367        4.06755       -1.81797
H          6.78333        5.29792       -1.84637
