10

O          4.35460        6.52140        2.43810
O          4.87130        5.12250        4.10580
O          5.52710        6.09490        0.00630
C          4.96190        5.50040        2.88680
C          5.71720        4.57670        1.93660
C          5.95070        4.91480        0.58450
C          6.82419        4.17625       -0.31033
N          7.00419        4.36175       -1.57542
H          7.68831        3.68107       -1.90565
H          7.34539        5.30470       -1.76205
