16

H         10.34330       11.07680       12.78540
O         10.34280        9.49220       10.74620
C          9.27720       11.27440       12.69940
C          9.11550        9.86510       10.67230
C          8.63610       12.04670       13.67010
C          8.50880       10.76260       11.64980
O          8.43990        9.32600        9.71230
N          7.30920       12.28530       13.60530
C          7.13610       11.03520       11.58150
C          6.56070       11.80700       12.59120
H          6.51610       10.64440       10.78010
H          5.49810       12.04820       12.60790
C          9.28009       12.68663       14.82590
H         10.32798       12.47049       14.83591
H          8.83114       12.31729       15.72420
H          9.13476       13.74487       14.76353
