13

O          4.63598       14.19001        3.80354
O          6.56069       14.02370        4.87206
N          3.76768       10.55597        7.15295
C!          3.55855       12.01370        5.27482
H!          3.02658       12.35058        4.56281
C!          4.83825       12.49835        5.48338
C!          5.58983       11.95484        6.52828
H!          6.48117       12.24538        6.68342
C          3.06289       11.03186        6.11320
H          2.19487       10.68246        5.94984
C          5.01801       10.99179        7.33275
H          5.53257       10.62360        8.04065
C          5.38640       13.64174        4.67480
