104
#
C    0.0000    7.4706    0.0000
Cu    0.0000    0.0000    0.0000
Si    0.0000    0.0000    3.9761
F    0.0000    0.0000    2.2505
F    1.2042    1.2042    3.9761
C    6.2444    0.0000    0.0000
F    12.5108    1.2042    3.9761
C    0.0000    6.2444    0.0000
F    12.5108    12.5108    3.9761
C    7.4706    0.0000    0.0000
F    1.2042    12.5108    3.9761
F    0.0000    0.0000    5.7018
C    6.8575    0.6131    3.9761
Cu    6.8575    6.8575    3.9761
Si    6.8575    6.8575    0.0000
F    6.8575    6.8575    6.2266
F    8.0617    8.0617    0.0000
C    13.1019    6.8575    3.9761
F    5.6533    8.0617    0.0000
C    6.8575    13.1019    3.9761
F    5.6533    5.6533    0.0000
C    0.6131    6.8575    3.9761
F    8.0617    5.6533    0.0000
F    6.8575    6.8575    1.7256
C    0.3437    4.1156    6.7841
C    0.3113    2.7289    6.8358
C    13.3713    4.1156    1.1682
C    13.4037    2.7289    1.1165
C    0.0000    4.8264    0.0000
N    13.7150    2.0404    0.0000
H    0.5020    4.6097    5.8258
H    0.4841    2.1574    5.9236
H    13.2130    4.6097    2.1264
H    13.2309    2.1574    2.0286
C    9.5994    0.3437    6.7841
C    10.9861    0.3113    6.8358
C    9.5994    13.3713    1.1682
C    10.9861    13.4037    1.1165
C    8.8886    0.0000    0.0000
N    11.6746    13.7150    0.0000
H    9.1053    0.5020    5.8258
H    11.5576    0.4841    5.9236
H    9.1053    13.2130    2.1264
H    11.5576    13.2309    2.0286
C    0.3437    9.5994    6.7841
C    0.3113    10.9861    6.8358
C    13.3713    9.5994    1.1682
C    13.4037    10.9861    1.1165
C    0.0000    8.8886    0.0000
N    13.7150    11.6746    0.0000
H    0.5020    9.1053    5.8258
H    0.4841    11.5576    5.9236
H    13.2130    9.1053    2.1264
H    13.2309    11.5576    2.0286
C    4.1156    0.3437    6.7841
C    2.7289    0.3113    6.8358
C    4.1156    13.3713    1.1682
C    2.7289    13.4037    1.1165
C    4.8264    0.0000    0.0000
N    2.0404    13.7150    0.0000
H    4.6097    0.5020    5.8258
H    2.1574    0.4841    5.9236
H    4.6097    13.2130    2.1264
H    2.1574    13.2309    2.0286
C    6.5138    10.9731    5.1443
C    6.5462    9.5864    5.0926
C    7.2012    10.9731    2.8079
C    7.1688    9.5864    2.8596
C    6.8575    11.6839    3.9761
N    6.8575    8.8979    3.9761
H    6.3555    11.4672    6.1026
H    6.3734    9.0149    6.0048
H    7.3595    11.4672    1.8497
H    7.3416    9.0149    1.9475
C    2.7419    7.2012    2.8079
C    4.1286    7.1688    2.8597
C    2.7419    6.5138    5.1443
C    4.1286    6.5462    5.0927
C    2.0311    6.8575    3.9761
N    4.8171    6.8575    3.9762
H    2.2478    7.3595    1.8496
H    4.7001    7.3416    1.9475
H    2.2478    6.3555    6.1025
H    4.7001    6.3734    6.0048
C    7.2012    2.7419    2.8079
C    7.1688    4.1286    2.8597
C    6.5138    2.7419    5.1443
C    6.5462    4.1286    5.0927
C    6.8575    2.0311    3.9761
N    6.8575    4.8171    3.9762
H    7.3595    2.2478    1.8496
H    7.3416    4.7001    1.9475
H    6.3555    2.2478    6.1025
H    6.3734    4.7001    6.0048
C    10.9731    7.2012    5.1443
C    9.5864    7.1688    5.0926
C    10.9731    6.5138    2.8079
C    9.5864    6.5462    2.8596
C    11.6839    6.8575    3.9761
N    8.8979    6.8575    3.9761
H    11.4672    7.3595    6.1026
H    9.0149    7.3416    6.0048
H    11.4672    6.3555    1.8497
H    9.0149    6.3734    1.9475
