424
#
O    17.2752    1.8394    0.0365
O    20.7100    3.4713    1.8394
O    0.0365    3.4713    18.9071
O    0.0365    1.8394    17.2752
O    20.7100    1.8394    3.4713
O    18.9071    3.4713    0.0365
Zr    0.0000    2.3788    0.0000
O    1.2164    1.2164    19.5301
O    19.5301    1.2164    1.2164
C    17.6580    3.0885    0.0517
C    20.6946    3.0885    3.0885
C    0.0519    3.0885    17.6580
H    1.7780    1.7780    1.7780
O    1.2074    1.2074    1.2074
H    18.9685    1.7780    18.9685
O    19.5391    1.2074    19.5391
O    3.4713    18.9071    0.0365
O    17.2752    18.9071    20.7100
O    1.8394    20.7100    3.4713
O    1.8394    0.0365    17.2752
O    18.9071    20.7100    17.2752
O    18.9071    0.0365    3.4713
O    0.0365    17.2752    1.8394
O    20.7100    17.2752    18.9071
O    0.0365    18.9071    3.4713
O    20.7100    18.9071    17.2752
O    3.4713    20.7100    1.8394
O    17.2752    0.0365    1.8394
O    17.2752    20.7100    18.9071
O    3.4713    0.0365    18.9071
O    1.8394    17.2752    0.0365
O    18.9071    17.2752    20.7100
Zr    2.3788    0.0000    0.0000
Zr    18.3677    0.0000    0.0000
Zr    0.0000    0.0000    2.3788
Zr    0.0000    0.0000    18.3677
Zr    0.0000    18.3677    0.0000
O    19.5301    19.5301    19.5301
O    1.2164    19.5301    1.2164
C    3.0885    17.6580    0.0519
C    17.6580    17.6580    20.6946
C    3.0885    20.6948    3.0885
C    3.0885    0.0517    17.6580
C    17.6580    20.6946    17.6580
C    17.6580    0.0519    3.0885
C    0.0517    17.6580    3.0885
C    20.6948    17.6580    17.6580
H    18.9685    18.9685    1.7780
O    19.5391    19.5391    1.2074
H    1.7780    18.9685    18.9685
O    1.2074    19.5391    19.5391
O    6.9019    12.2126    0.0365
O    13.8446    12.2126    20.7100
O    10.3367    13.8446    1.8394
O    10.4098    13.8446    18.9071
O    10.4098    12.2126    17.2752
O    10.3367    12.2126    3.4713
O    12.2126    13.8446    20.7100
O    8.5339    13.8446    0.0365
Zr    10.3733    12.7520    0.0000
O    11.5896    11.5896    19.5301
O    9.1569    11.5896    1.2164
C    7.2847    13.4618    0.0517
C    13.4618    13.4618    20.6946
C    10.3214    13.4618    3.0885
C    10.4251    13.4618    17.6580
H    12.1512    12.1512    1.7780
O    11.5807    11.5807    1.2074
H    8.5953    12.1512    18.9685
O    9.1658    11.5807    19.5391
O    13.8446    8.5339    0.0365
O    12.2126    10.3367    3.4713
O    12.2126    10.4098    17.2752
O    8.5339    10.3367    17.2752
O    8.5339    10.4098    3.4713
O    10.4098    6.9019    1.8394
O    10.3367    6.9019    18.9071
O    10.4098    8.5339    3.4713
O    10.3367    8.5339    17.2752
O    13.8446    10.3367    1.8394
O    6.9019    10.4098    1.8394
O    6.9019    10.3367    18.9071
O    13.8446    10.4098    18.9071
O    12.2126    6.9019    0.0365
Zr    12.7520    10.3733    0.0000
Zr    7.9945    10.3733    0.0000
Zr    10.3733    10.3733    2.3788
Zr    10.3733    10.3733    18.3677
Zr    10.3733    7.9945    0.0000
O    9.1569    9.1569    19.5301
O    11.5896    9.1569    1.2164
C    13.4618    7.2847    0.0519
C    13.4618    10.3216    3.0885
C    13.4618    10.4249    17.6580
C    7.2847    10.3214    17.6580
C    7.2847    10.4251    3.0885
C    10.4249    7.2847    3.0885
C    10.3216    7.2847    17.6580
H    8.5953    8.5953    1.7780
O    9.1658    9.1658    1.2074
H    12.1512    8.5953    18.9685
O    11.5807    9.1658    19.5391
O    17.2752    12.2126    10.4098
O    20.7100    13.8446    12.2126
O    0.0365    13.8446    8.5339
O    0.0365    12.2126    6.9019
O    20.7100    12.2126    13.8446
O    18.9071    13.8446    10.4098
Zr    0.0000    12.7520    10.3732
O    1.2164    11.5896    9.1569
O    19.5301    11.5896    11.5896
C    17.6580    13.4618    10.4251
C    20.6948    13.4618    13.4618
C    0.0517    13.4618    7.2847
H    1.7780    12.1512    12.1512
O    1.2074    11.5807    11.5807
H    18.9685    12.1512    8.5953
O    19.5391    11.5807    9.1658
O    3.4713    8.5339    10.4098
O    17.2752    8.5339    10.3367
O    1.8394    10.3367    13.8446
O    1.8394    10.4098    6.9019
O    18.9071    10.3367    6.9019
O    18.9071    10.4098    13.8446
O    0.0365    6.9019    12.2126
O    20.7100    6.9019    8.5339
O    0.0365    8.5339    13.8446
O    20.7100    8.5339    6.9019
O    3.4713    10.3367    12.2126
O    17.2752    10.4098    12.2126
O    17.2752    10.3367    8.5339
O    3.4713    10.4098    8.5339
O    1.8394    6.9019    10.4098
O    18.9071    6.9019    10.3367
Zr    2.3788    10.3733    10.3732
Zr    18.3677    10.3733    10.3732
Zr    0.0000    10.3733    12.7520
Zr    0.0000    10.3733    7.9945
Zr    0.0000    7.9945    10.3732
O    19.5301    9.1569    9.1569
O    1.2164    9.1569    11.5896
C    3.0885    7.2847    10.4249
C    17.6580    7.2847    10.3214
C    3.0885    10.3214    13.4618
C    3.0885    10.4251    7.2847
C    17.6580    10.3216    7.2847
C    17.6580    10.4249    13.4618
C    0.0519    7.2847    13.4618
C    20.6946    7.2847    7.2847
H    18.9685    8.5953    12.1512
O    19.5391    9.1658    11.5807
H    1.7780    8.5953    8.5953
O    1.2074    9.1658    9.1658
O    6.9019    1.8394    10.4098
O    13.8446    1.8394    10.3367
O    10.3367    3.4713    12.2126
O    10.4098    3.4713    8.5339
O    10.4098    1.8394    6.9019
O    10.3367    1.8394    13.8446
O    12.2126    3.4713    10.3367
O    8.5339    3.4713    10.4098
Zr    10.3733    2.3788    10.3732
O    11.5896    1.2164    9.1569
O    9.1569    1.2164    11.5896
C    7.2847    3.0885    10.4251
C    13.4618    3.0885    10.3214
C    10.3216    3.0885    13.4618
C    10.4249    3.0885    7.2847
H    12.1512    1.7780    12.1512
O    11.5807    1.2074    11.5807
H    8.5953    1.7780    8.5953
O    9.1658    1.2074    9.1658
O    13.8446    18.9071    10.4098
O    12.2126    20.7100    13.8446
O    12.2126    0.0365    6.9019
O    8.5339    20.7100    6.9019
O    8.5339    0.0365    13.8446
O    10.4098    17.2752    12.2126
O    10.3367    17.2752    8.5339
O    10.4098    18.9071    13.8446
O    10.3367    18.9071    6.9019
O    13.8446    20.7100    12.2126
O    6.9019    0.0365    12.2126
O    6.9019    20.7100    8.5339
O    13.8446    0.0365    8.5339
O    12.2126    17.2752    10.4098
Zr    12.7520    0.0000    10.3732
Zr    7.9945    0.0000    10.3732
Zr    10.3733    0.0000    12.7520
Zr    10.3733    0.0000    7.9945
Zr    10.3733    18.3677    10.3732
O    9.1569    19.5301    9.1569
O    11.5896    19.5301    11.5896
C    13.4618    17.6580    10.4249
C    13.4618    20.6946    13.4618
C    13.4618    0.0519    7.2847
C    7.2847    20.6948    7.2847
C    7.2847    0.0517    13.4618
C    10.4251    17.6580    13.4618
C    10.3214    17.6580    7.2847
H    8.5953    18.9685    12.1512
O    9.1658    19.5391    11.5807
H    12.1512    18.9685    8.5953
O    11.5807    19.5391    9.1658
C    16.9115    15.2084    20.6745
C    16.5827    16.5827    20.6776
C    15.2084    16.9115    20.6745
C    14.2082    15.9113    20.6745
C    14.5371    14.5371    20.6776
C    15.9113    14.2082    20.6745
H    17.9492    14.8997    20.6762
H    14.8997    17.9492    20.6762
H    13.1705    16.2200    20.6762
H    16.2200    13.1705    20.6762
C    16.9115    4.8352    10.3013
C    16.5827    6.2094    10.3044
C    15.2084    6.5383    10.3013
C    14.2082    5.5381    10.3013
C    14.5371    4.1638    10.3044
C    15.9113    3.8350    10.3013
H    17.9492    4.5265    10.3029
H    14.8997    7.5760    10.3029
H    13.1705    5.8468    10.3029
H    16.2200    2.7973    10.3029
C    16.9115    5.5381    0.0720
C    16.5827    4.1638    0.0689
C    15.2084    3.8350    0.0720
C    14.2082    4.8352    0.0720
C    14.5371    6.2094    0.0689
C    15.9113    6.5383    0.0720
H    17.9492    5.8468    0.0703
H    14.8997    2.7973    0.0703
H    13.1705    4.5265    0.0703
H    16.2200    7.5760    0.0703
C    16.9115    15.9113    10.4452
C    16.5827    14.5371    10.4421
C    15.2084    14.2082    10.4452
C    14.2082    15.2084    10.4452
C    14.5371    16.5827    10.4421
C    15.9113    16.9115    10.4452
H    17.9492    16.2200    10.4436
H    14.8997    13.1705    10.4436
H    13.1705    14.8997    10.4436
H    16.2200    17.9492    10.4436
C    3.8350    4.8352    10.4452
C    4.1638    6.2094    10.4421
C    5.5381    6.5383    10.4452
C    6.5383    5.5381    10.4452
C    6.2094    4.1638    10.4421
C    4.8352    3.8350    10.4452
H    2.7973    4.5265    10.4436
H    5.8468    7.5760    10.4436
H    7.5760    5.8468    10.4436
H    4.5265    2.7973    10.4436
C    3.8350    15.2084    0.0720
C    4.1638    16.5827    0.0689
C    5.5381    16.9115    0.0720
C    6.5383    15.9113    0.0720
C    6.2094    14.5371    0.0689
C    4.8352    14.2082    0.0720
H    2.7973    14.8997    0.0703
H    5.8468    17.9492    0.0703
H    7.5760    16.2200    0.0703
H    4.5265    13.1705    0.0703
C    20.6749    5.5381    3.8350
C    20.6776    4.1638    4.1638
C    20.6743    3.8350    5.5381
C    20.6743    4.8352    6.5383
C    20.6776    6.2094    6.2094
C    20.6749    6.5383    4.8352
H    20.6768    5.8468    2.7973
H    20.6755    2.7973    5.8468
H    20.6755    4.5265    7.5760
H    20.6768    7.5760    4.5265
C    10.3013    6.5383    15.2084
C    10.3044    6.2094    16.5827
C    10.3015    4.8352    16.9115
C    10.3015    3.8350    15.9113
C    10.3044    4.1638    14.5371
C    10.3013    5.5381    14.2082
H    10.3027    7.5760    14.8997
H    10.3031    4.5265    17.9492
H    10.3031    2.7973    16.2200
H    10.3027    5.8468    13.1705
C    20.6745    16.9115    15.2084
C    20.6776    16.5827    16.5827
C    20.6747    15.2084    16.9115
C    20.6747    14.2082    15.9113
C    20.6776    14.5371    14.5371
C    20.6745    15.9113    14.2082
H    20.6760    17.9492    14.8997
H    20.6764    14.8997    17.9492
H    20.6764    13.1705    16.2200
H    20.6760    16.2200    13.1705
C    10.3017    15.9113    3.8350
C    10.3044    14.5371    4.1638
C    10.3011    14.2082    5.5381
C    10.3011    15.2084    6.5383
C    10.3044    16.5827    6.2094
C    10.3017    16.9115    4.8352
H    10.3035    16.2200    2.7973
H    10.3023    13.1705    5.8468
H    10.3023    14.8997    7.5760
H    10.3035    17.9492    4.5265
C    0.0718    16.9115    5.5381
C    0.0689    16.5827    4.1638
C    0.0720    15.2084    3.8350
C    0.0720    14.2082    4.8352
C    0.0689    14.5371    6.2094
C    0.0718    15.9113    6.5383
H    0.0701    17.9492    5.8468
H    0.0705    14.8997    2.7973
H    0.0705    13.1705    4.5265
H    0.0701    16.2200    7.5760
C    10.4454    15.9113    16.9115
C    10.4421    14.5371    16.5827
C    10.4448    14.2082    15.2084
C    10.4448    15.2084    14.2082
C    10.4421    16.5827    14.5371
C    10.4454    16.9115    15.9113
H    10.4442    16.2200    17.9492
H    10.4430    13.1705    14.8997
H    10.4430    14.8997    13.1705
H    10.4442    17.9492    16.2200
C    10.4450    6.5383    5.5381
C    10.4421    6.2094    4.1638
C    10.4452    4.8352    3.8350
C    10.4452    3.8350    4.8352
C    10.4421    4.1638    6.2094
C    10.4450    5.5381    6.5383
H    10.4434    7.5760    5.8468
H    10.4438    4.5265    2.7973
H    10.4438    2.7973    4.5265
H    10.4434    5.8468    7.5760
C    0.0722    5.5381    16.9115
C    0.0689    4.1638    16.5827
C    0.0716    3.8350    15.2084
C    0.0716    4.8352    14.2082
C    0.0689    6.2094    14.5371
C    0.0722    6.5383    15.9113
H    0.0710    5.8468    17.9492
H    0.0697    2.7973    14.8997
H    0.0697    4.5265    13.1705
H    0.0710    7.5760    16.2200
C    3.8350    20.6747    5.5381
C    4.1638    20.6776    4.1638
C    5.5381    20.6745    3.8350
C    6.5383    20.6745    4.8352
C    6.2094    20.6776    6.2094
C    4.8352    20.6747    6.5383
H    2.7973    20.6762    5.8468
H    5.8468    20.6762    2.7973
H    7.5760    20.6762    4.5265
H    4.5265    20.6762    7.5760
C    6.5383    10.3013    15.2084
C    6.2094    10.3044    16.5827
C    4.8352    10.3015    16.9115
C    3.8350    10.3015    15.9113
C    4.1638    10.3044    14.5371
C    5.5381    10.3013    14.2082
H    7.5760    10.3027    14.8997
H    4.5265    10.3031    17.9492
H    2.7973    10.3031    16.2200
H    5.8468    10.3027    13.1705
C    16.9115    20.6745    15.2084
C    16.5827    20.6776    16.5827
C    15.2084    20.6747    16.9115
C    14.2082    20.6747    15.9113
C    14.5371    20.6776    14.5371
C    15.9113    20.6745    14.2082
H    17.9492    20.6760    14.8997
H    14.8997    20.6764    17.9492
H    13.1705    20.6764    16.2200
H    16.2200    20.6760    13.1705
C    14.2082    10.3015    5.5381
C    14.5371    10.3044    4.1638
C    15.9113    10.3013    3.8350
C    16.9115    10.3013    4.8352
C    16.5827    10.3044    6.2094
C    15.2084    10.3015    6.5383
H    13.1705    10.3029    5.8468
H    16.2200    10.3029    2.7973
H    17.9492    10.3029    4.5265
H    14.8997    10.3029    7.5760
C    3.8350    0.0720    15.2084
C    4.1638    0.0689    16.5827
C    5.5381    0.0718    16.9115
C    6.5383    0.0718    15.9113
C    6.2094    0.0689    14.5371
C    4.8352    0.0720    14.2082
H    2.7973    0.0703    14.8997
H    5.8468    0.0703    17.9492
H    7.5760    0.0703    16.2200
H    4.5265    0.0703    13.1705
C    6.5383    10.4450    5.5381
C    6.2094    10.4421    4.1638
C    4.8352    10.4452    3.8350
C    3.8350    10.4452    4.8352
C    4.1638    10.4421    6.2094
C    5.5381    10.4450    6.5383
H    7.5760    10.4434    5.8468
H    4.5265    10.4438    2.7973
H    2.7973    10.4438    4.5265
H    5.8468    10.4434    7.5760
C    16.9115    0.0718    5.5381
C    16.5827    0.0689    4.1638
C    15.2084    0.0720    3.8350
C    14.2082    0.0720    4.8352
C    14.5371    0.0689    6.2094
C    15.9113    0.0718    6.5383
H    17.9492    0.0701    5.8468
H    14.8997    0.0705    2.7973
H    13.1705    0.0705    4.5265
H    16.2200    0.0701    7.5760
C    14.2082    10.4452    15.2084
C    14.5371    10.4421    16.5827
C    15.9113    10.4450    16.9115
C    16.9115    10.4450    15.9113
C    16.5827    10.4421    14.5371
C    15.2084    10.4452    14.2082
H    13.1705    10.4436    14.8997
H    16.2200    10.4436    17.9492
H    17.9492    10.4436    16.2200
H    14.8997    10.4436    13.1705
